**
**
**      Complete input for the 2nd verification problem
**      described in the PPTX file
**
**
*HEADING
**PREPRINT,HISTORY=NO,ECHO=no,MODEL=NO,CONTACT=NO
*NODE, SYSTEM=R, NSET=NALL
 1,   0.0,  0.0,  0.0
 2,   0.5,  0.0,  0.0
 3,   1.0,  0.0,  0.0
 4,   0.0,  1.0,  0.0
 5,   0.5,  1.0,  0.0
 6,   1.0,  1.0,  0.0
 7,   0.0,  2.0,  0.0
 8,   0.5,  2.0,  0.0
 9,   1.0,  2.0,  0.0
10,   0.0,  0.0,  2.0
11,   0.5,  0.0,  2.0
12,   1.0,  0.0,  2.0
13,   0.0,  1.0,  2.0
14,   0.5,  1.0,  2.0
15,   1.0,  1.0,  2.0
16,   0.0,  2.0,  2.0
17,   0.5,  2.0,  2.0
18,   1.0,  2.0,  2.0
19,   0.0,  0.0,  4.0
20,   0.5,  0.0,  4.0
** ... 15 like lines cut
**
**
*ELEMENT,TYPE=C3D8  ,ELSET=eall
    1,    1,    2,    5,    4,   10,   11,   14,   13
    2,    2,    3,    6,    5,   11,   12,   15,   14
    3,    4,    5,    8,    7,   13,   14,   17,   16
    4,    5,    6,    9,    8,   14,   15,   18,   17
    5,   10,   11,   14,   13,   19,   20,   23,   22
    6,   11,   12,   15,   14,   20,   21,   24,   23
    7,   13,   14,   17,   16,   22,   23,   26,   25
    8,   14,   15,   18,   17,   23,   24,   27,   26
**
*SOLID SECTION,ELSET=EALL,MATERIAL=steel
*MATERIAL,NAME=steel
*elastic
30000., 0.30
**
** --- DUMMY LINK TIES (proxy-driver, u/v/w) ---
*EQUATION
2
28, 1, 1.0
29, 1, -1.0
*EQUATION
2
28, 2, 1.0
29, 2, -1.0
*EQUATION
2
28, 3, 1.0
29, 3, -1.0
*EQUATION
2
30, 1, 1.0
31, 1, -1.0
*EQUATION
2
30, 2, 1.0
31, 2, -1.0
*EQUATION
2
30, 3, 1.0
31, 3, -1.0
*EQUATION
2
32, 1, 1.0
33, 1, -1.0
*EQUATION
2
32, 2, 1.0
33, 2, -1.0
*EQUATION
2
32, 3, 1.0
33, 3, -1.0
*EQUATION
2
34, 1, 1.0
35, 1, -1.0
*EQUATION
2
34, 2, 1.0
35, 2, -1.0
*EQUATION
2
34, 3, 1.0
35, 3, -1.0
**
** --- MULTI-POINT CONSTRAINTS (*EQUATION) ---
**
** --- FACE MPCs (direction X) ---
*EQUATION
3
15, 1, 1.0
13, 1, -1.0
28, 1, -1.0
*EQUATION
3
15, 2, 1.0
13, 2, -1.0
30, 2, -1.0
*EQUATION
3
15, 3, 1.0
13, 3, -1.0
32, 3, -1.0
** --- FACE MPCs (direction Y) ---
*EQUATION
3
17, 1, 1.0
11, 1, -1.0
30, 1, -2.0
*EQUATION
2
17, 2, 1.0
11, 2, -1.0
*EQUATION
3
17, 3, 1.0
11, 3, -1.0
34, 3, -2.0
** --- FACE MPCs (direction Z) ---
*EQUATION
3
23, 1, 1.0
5, 1, -1.0
32, 1, -4.0
*EQUATION
3
23, 2, 1.0
5, 2, -1.0
34, 2, -4.0
*EQUATION
2
23, 3, 1.0
5, 3, -1.0
** --- EDGE MPCs (type X-Y (-+)/(+-)) ---
*EQUATION
4
12, 1, 1.0
16, 1, -1.0
28, 1, -1.0
30, 1, 2.0
*EQUATION
3
12, 2, 1.0
16, 2, -1.0
30, 2, -1.0
*EQUATION
4
12, 3, 1.0
16, 3, -1.0
32, 3, -1.0
34, 3, 2.0
** --- EDGE MPCs (type X-Y (--)/(++)) ---
*EQUATION
4
18, 1, 1.0
10, 1, -1.0
28, 1, -1.0
30, 1, -2.0
*EQUATION
3
18, 2, 1.0
10, 2, -1.0
30, 2, -1.0
*EQUATION
4
18, 3, 1.0
10, 3, -1.0
32, 3, -1.0
34, 3, -2.0
** --- EDGE MPCs (type X-Z (-+)/(+-)) ---
*EQUATION
4
6, 1, 1.0
22, 1, -1.0
28, 1, -1.0
32, 1, 4.0
*EQUATION
4
6, 2, 1.0
22, 2, -1.0
30, 2, -1.0
34, 2, 4.0
*EQUATION
3
6, 3, 1.0
22, 3, -1.0
32, 3, -1.0
** --- EDGE MPCs (type X-Z (--)/(++)) ---
*EQUATION
4
24, 1, 1.0
4, 1, -1.0
28, 1, -1.0
32, 1, -4.0
*EQUATION
4
24, 2, 1.0
4, 2, -1.0
30, 2, -1.0
34, 2, -4.0
*EQUATION
3
24, 3, 1.0
4, 3, -1.0
32, 3, -1.0
** --- EDGE MPCs (type Y-Z (-+)/(+-)) ---
*EQUATION
4
8, 1, 1.0
20, 1, -1.0
30, 1, -2.0
32, 1, 4.0
*EQUATION
3
8, 2, 1.0
20, 2, -1.0
34, 2, 4.0
*EQUATION
3
8, 3, 1.0
20, 3, -1.0
34, 3, -2.0
** --- EDGE MPCs (type Y-Z (--)/(++)) ---
*EQUATION
4
26, 1, 1.0
2, 1, -1.0
30, 1, -2.0
32, 1, -4.0
*EQUATION
3
26, 2, 1.0
2, 2, -1.0
34, 2, -4.0
*EQUATION
3
26, 3, 1.0
2, 3, -1.0
34, 3, -2.0
** --- VERTEX MPCs (body diagonals) ---
*EQUATION
4
27, 1, 1.0
28, 1, -1.0
30, 1, -2.0
32, 1, -4.0
*EQUATION
3
27, 2, 1.0
30, 2, -1.0
34, 2, -4.0
*EQUATION
3
27, 3, 1.0
32, 3, -1.0
34, 3, -2.0
*EQUATION
5
9, 1, 1.0
19, 1, -1.0
28, 1, -1.0
30, 1, -2.0
32, 1, 4.0
*EQUATION
4
9, 2, 1.0
19, 2, -1.0
30, 2, -1.0
34, 2, 4.0
*EQUATION
4
9, 3, 1.0
19, 3, -1.0
32, 3, -1.0
34, 3, -2.0
*EQUATION
5
25, 1, 1.0
3, 1, -1.0
28, 1, 1.0
30, 1, -2.0
32, 1, -4.0
*EQUATION
4
25, 2, 1.0
3, 2, -1.0
30, 2, 1.0
34, 2, -4.0
*EQUATION
4
25, 3, 1.0
3, 3, -1.0
32, 3, 1.0
34, 3, -2.0
*EQUATION
5
21, 1, 1.0
7, 1, -1.0
28, 1, -1.0
30, 1, 2.0
32, 1, -4.0
*EQUATION
4
21, 2, 1.0
7, 2, -1.0
30, 2, -1.0
34, 2, -4.0
*EQUATION
4
21, 3, 1.0
7, 3, -1.0
32, 3, -1.0
34, 3, 2.0
******************Start Step 1 -----------------------------------
*STEP,AMPLITUDE=RAMP,INC=1
Step 1
*STATIC
1,1
**
**
**
** RVE PBC generator output (Abaqus format)
** Input file : input_to_Python_script_example_problem.inp
**
** Declared dimensions from input file:
**   Lx_decl=1.0  Ly_decl=2.0  Lz_decl=4.0
**
** Detected bounds from node coordinates:
**   xmin=0.0  xmax=1.0   => Lx_det=1.0
**   ymin=0.0  ymax=2.0   => Ly_det=2.0
**   zmin=0.0  zmax=4.0   => Lz_det=4.0
**
** Vertex nodes: {'A': 1, 'B': 3, 'C': 21, 'D': 19, 'E': 7, 'F': 9, 'G': 27, 'H': 25}
**
** Enforced strain tensor eps_ij (row-wise):
**   row 1: 0.1  0.2  0.5
**   row 2: 0.2  0.0  0.3
**   row 3: 0.5  0.3  0.0
**
** Dummy strain mapping (eps_ij -> dummy_node, driver_node, dof):
**   eps_11 -> dummy 28 u,  driver 29 u
**   eps_12 -> dummy 30 u,  driver 31 u
**   eps_13 -> dummy 32 u,  driver 33 u
**   eps_21 -> dummy 30 v,  driver 31 v
**   eps_23 -> dummy 34 v,  driver 35 v
**   eps_31 -> dummy 32 w,  driver 33 w
**   eps_32 -> dummy 34 w,  driver 35 w
**
** --- BOUNDARY (absolute constraints) ---
*BOUNDARY
29, 1, 1, 0.1
31, 1, 1, 0.2
31, 2, 2, 0.2
33, 1, 1, 0.5
33, 3, 3, 0.5
35, 2, 2, 0.3
35, 3, 3, 0.3
1, 1, 1, 0.0
1, 2, 2, 0.0
1, 3, 3, 0.0
**
** Total zero absolute constraints (final, incl. implied): 3
** Total driver constraints (from eps_ij): 7
** Total MPC equations emitted: 39
** ------------------------------------------------------------
**
**
*node print,freq=1,nset=nall
u,
*el print,freq=1,elset=eall
s
*END STEP
